tests/data/power_flow/dummy-test-batch-incomplete-input/input.json
{
  "version": "1.0",
  "type": "input",
  "is_batch": false,
  "attributes": {},
  "data": {
    "node": [
      {
        "id": 1,
        "u_rated": 10.0
      },
      {
        "id": 2,
        "u_rated": 10.0
      }
    ],
    "line": [
      {
        "id": 4,
        "from_node": 1,
        "to_node": 2,
        "from_status": 1,
        "to_status": 1,
        "r1": 0.0,
        "x1": 1.0,
        "c1": 0.0,
        "tan1": 0.0,
        "i_n": 1000.0,
        "r0": 0.0,
        "x0": 1.0,
        "c0": 0.0,
        "tan0": 0.0
      }
    ],
    "source": [
      {
        "id": 6,
        "node": 1,
        "status": 1,
        "u_ref": 1.0,
        "sk": 100.0,
        "rx_ratio": 0.0
      }
    ],
    "sym_load": [
      {
        "id": 7,
        "node": 2,
        "status": 1,
        "type": 1,
        "p_specified": 0.0,
        "q_specified": 0.0
      },
      {
        "id": 8,
        "node": 2,
        "status": 1,
        "type": 1,
        "p_specified": 0.0
      }
    ]
  }
}
